Pcp_File_Version=4
*** BLOCK I: ATMOSPHERIC INFORMATION  **********************************
   MaxAL                    (MaxAL = number of atmospheric data-records)
    960
 DailyVar  SinusVar  lLay  lBCCycles lInterc lDummy  lDummy  lDummy  lDummy  lDummy
       f       f       t       f       f       f       f       f       f       f
 Extinction
    0.39
 hCritS                 (max. allowed pressure head at the soil surface)
      0
       tAtm        Prec       rSoil       rRoot      hCritA          rB          hB          ht   RootDepth
       0.25       0.000      0.0000      4.0000      100000      0.0042      0.0000      0.0000
       0.50       0.000      0.0000      4.0000      100000      0.0042      0.0000      0.0000
       0.75       0.000      0.0000      4.0000      100000      0.0042      0.0000      0.0000
       1.00       0.000      0.0000      4.0000      100000      0.0042      0.0000      0.0000
       1.25       0.000      0.0000      4.0000      100000      0.0042      0.0000      0.0000
       1.50       0.000      0.0000      4.0000      100000      0.0042      0.0000      0.0000
       1.75       0.000      0.0000      4.0000      100000      0.0042      0.0000      0.0000
       2.00       0.000      0.0000      4.0000      100000      0.0042      0.0000      0.0000
       2.25       0.000      0.0000      4.0000      100000      0.0042      0.0000      0.0000
       2.50       0.000      0.0000      4.0000      100000      0.0042      0.0000      0.0000
       2.75       0.000      0.0000      4.0000      100000      0.0042      0.0000      0.0000
       3.00       0.000      0.0000      4.0000      100000      0.0042      0.0000      0.0000
       3.25       0.000      0.0000      4.0000      100000      0.0042      0.0000      0.0000
       3.50       0.000      0.0000      4.0000      100000      0.0042      0.0000      0.0000
       3.75       0.000      0.0000      4.0000      100000      0.0042      0.0000      0.0000
       4.00       0.000      0.0000      4.0000      100000      0.0042      0.0000      0.0000
       4.25       0.000      0.0000      4.0000      100000      0.0042      0.0000      0.0000
       4.50       0.000      0.0000      4.0000      100000      0.0042      0.0000      0.0000
       4.75       0.000      0.0000      4.0000      100000      0.0042      0.0000      0.0000
       5.00       0.000      0.0000      4.0000      100000      0.0042      0.0000      0.0000
       5.25       0.000      0.0000      4.0000      100000      0.0042      0.0000      0.0000
       5.50       0.000      0.0000      4.0000      100000      0.0042      0.0000      0.0000
       5.75       0.000      0.0000      4.0000      100000      0.0042      0.0000      0.0000
       6.00       0.000      0.0000      4.0000      100000      0.0042      0.0000      0.0000
       6.25       0.000      0.0035      4.0000      100000      0.0042      0.0000      0.0000
       6.50       0.000      0.0035      4.0000      100000      0.0042      0.0000      0.0000
       6.75       0.000      0.0035      4.0000      100000      0.0042      0.0000      0.0000
       7.00       0.000      0.0035      4.0000      100000      0.0042      0.0000      0.0000
       7.25       0.000      0.0132      4.0000      100000      0.0042      0.0000      0.0000
       7.50       0.000      0.0132      4.0000      100000      0.0042      0.0000      0.0000
       7.75       0.000      0.0132      4.0000      100000      0.0042      0.0000      0.0000
       8.00       0.000      0.0132      4.0000      100000      0.0042      0.0000      0.0000
       8.25       0.000      0.0276      4.0000      100000      0.0042      0.0000      0.0000
       8.50       0.000      0.0276      4.0000      100000      0.0042      0.0000      0.0000
       8.75       0.000      0.0276      4.0000      100000      0.0042      0.0000      0.0000
       9.00       0.000      0.0276      4.0000      100000      0.0042      0.0000      0.0000
       9.25       0.000      0.0442      4.0000      100000      0.0042      0.0000      0.0000
       9.50       0.000      0.0442      4.0000      100000      0.0042      0.0000      0.0000
       9.75       0.000      0.0442      4.0000      100000      0.0042      0.0000      0.0000
      10.00       0.000      0.0442      4.0000      100000      0.0042      0.0000      0.0000
      10.25       0.000      0.0600      4.0000      100000      0.0042      0.0000      0.0000
      10.50       0.000      0.0600      4.0000      100000      0.0042      0.0000      0.0000
      10.75       0.000      0.0600      4.0000      100000      0.0042      0.0000      0.0000
      11.00       0.000      0.0600      4.0000      100000      0.0042      0.0000      0.0000
      11.25       0.000      0.0724      4.0000      100000      0.0042      0.0000      0.0000
      11.50       0.000      0.0724      4.0000      100000      0.0042      0.0000      0.0000
      11.75       0.000      0.0724      4.0000      100000      0.0042      0.0000      0.0000
      12.00       0.000      0.0724      4.0000      100000      0.0042      0.0000      0.0000
      12.25       0.000      0.0791      4.0000      100000      0.0042      0.0000      0.0000
      12.50       0.000      0.0791      4.0000      100000      0.0042      0.0000      0.0000
      12.75       0.000      0.0791      4.0000      100000      0.0042      0.0000      0.0000
      13.00       0.000      0.0791      4.0000      100000      0.0042      0.0000      0.0000
      13.25       0.000      0.0791      4.0000      100000      0.0042      0.0000      0.0000
      13.50       0.000      0.0791      4.0000      100000      0.0042      0.0000      0.0000
      13.75       0.000      0.0791      4.0000      100000      0.0042      0.0000      0.0000
      14.00       0.000      0.0791      4.0000      100000      0.0042      0.0000      0.0000
      14.25       0.000      0.0724      4.0000      100000      0.0042      0.0000      0.0000
      14.50       0.000      0.0724      4.0000      100000      0.0042      0.0000      0.0000
      14.75       0.000      0.0724      4.0000      100000      0.0042      0.0000      0.0000
      15.00       0.000      0.0724      4.0000      100000      0.0042      0.0000      0.0000
      15.25       0.000      0.0600      4.0000      100000      0.0042      0.0000      0.0000
      15.50       0.000      0.0600      4.0000      100000      0.0042      0.0000      0.0000
      15.75       0.000      0.0600      4.0000      100000      0.0042      0.0000      0.0000
      16.00       0.000      0.0600      4.0000      100000      0.0042      0.0000      0.0000
      16.25       0.000      0.0442      4.0000      100000      0.0042      0.0000      0.0000
      16.50       0.000      0.0442      4.0000      100000      0.0042      0.0000      0.0000
      16.75       0.000      0.0442      4.0000      100000      0.0042      0.0000      0.0000
      17.00       0.000      0.0442      4.0000      100000      0.0042      0.0000      0.0000
      17.25       0.000      0.0276      4.0000      100000      0.0042      0.0000      0.0000
      17.50       0.000      0.0276      4.0000      100000      0.0042      0.0000      0.0000
      17.75       0.000      0.0276      4.0000      100000      0.0042      0.0000      0.0000
      18.00       0.000      0.0276      4.0000      100000      0.0042      0.0000      0.0000
      18.25       0.000      0.0132      4.0000      100000      0.0042      0.0000      0.0000
      18.50       0.000      0.0132      4.0000      100000      0.0042      0.0000      0.0000
      18.75       0.000      0.0132      4.0000      100000      0.0042      0.0000      0.0000
      19.00       0.000      0.0132      4.0000      100000      0.0042      0.0000      0.0000
      19.25       0.000      0.0035      4.0000      100000      0.0042      0.0000      0.0000
      19.50       0.000      0.0035      4.0000      100000      0.0042      0.0000      0.0000
      19.75       0.000      0.0035      4.0000      100000      0.0042      0.0000      0.0000
      20.00       0.000      0.0035      4.0000      100000      0.0042      0.0000      0.0000
      20.25       0.000      0.0000      4.0000      100000      0.0042      0.0000      0.0000
      20.50       0.000      0.0000      4.0000      100000      0.0042      0.0000      0.0000
      20.75       0.000      0.0000      4.0000      100000      0.0042      0.0000      0.0000
      21.00       0.000      0.0000      4.0000      100000      0.0042      0.0000      0.0000
      21.25       0.000      0.0000      4.0000      100000      0.0042      0.0000      0.0000
      21.50       0.000      0.0000      4.0000      100000      0.0042      0.0000      0.0000
      21.75       0.000      0.0000      4.0000      100000      0.0042      0.0000      0.0000
      22.00       0.000      0.0000      4.0000      100000      0.0042      0.0000      0.0000
      22.25       0.000      0.0000      4.0000      100000      0.0042      0.0000      0.0000
      22.50       0.000      0.0000      4.0000      100000      0.0042      0.0000      0.0000
      22.75       0.000      0.0000      4.0000      100000      0.0042      0.0000      0.0000
      23.00       0.000      0.0000      4.0000      100000      0.0042      0.0000      0.0000
      23.25       0.000      0.0000      4.0000      100000      0.0042      0.0000      0.0000
      23.50       0.000      0.0000      4.0000      100000      0.0042      0.0000      0.0000
      23.75       0.000      0.0000      4.0000      100000      0.0042      0.0000      0.0000
      24.00       0.000      0.0000      4.0000      100000      0.0042      0.0000      0.0000
      24.25       0.000      0.0000      4.0000      100000      0.0042      0.0000      0.0000
      24.50       0.000      0.0000      4.0000      100000      0.0042      0.0000      0.0000
      24.75       0.000      0.0000      4.0000      100000      0.0042      0.0000      0.0000
      25.00       0.000      0.0000      4.0000      100000      0.0042      0.0000      0.0000
      25.25       0.000      0.0000      4.0000      100000      0.0042      0.0000      0.0000
      25.50       0.000      0.0000      4.0000      100000      0.0042      0.0000      0.0000
      25.75       0.000      0.0000      4.0000      100000      0.0042      0.0000      0.0000
      26.00       0.000      0.0000      4.0000      100000      0.0042      0.0000      0.0000
      26.25       0.000      0.0000      4.0000      100000      0.0042      0.0000      0.0000
      26.50       0.000      0.0000      4.0000      100000      0.0042      0.0000      0.0000
      26.75       0.000      0.0000      4.0000      100000      0.0042      0.0000      0.0000
      27.00       0.000      0.0000      4.0000      100000      0.0042      0.0000      0.0000
      27.25       0.000      0.0000      4.0000      100000      0.0042      0.0000      0.0000
      27.50       0.000      0.0000      4.0000      100000      0.0042      0.0000      0.0000
      27.75       0.000      0.0000      4.0000      100000      0.0042      0.0000      0.0000
      28.00       0.000      0.0000      4.0000      100000      0.0042      0.0000      0.0000
      28.25       0.000      0.0000      4.0000      100000      0.0042      0.0000      0.0000
      28.50       0.000      0.0000      4.0000      100000      0.0042      0.0000      0.0000
      28.75       0.000      0.0000      4.0000      100000      0.0042      0.0000      0.0000
      29.00       0.000      0.0000      4.0000      100000      0.0042      0.0000      0.0000
      29.25       0.000      0.0000      4.0000      100000      0.0042      0.0000      0.0000
      29.50       0.000      0.0000      4.0000      100000      0.0042      0.0000      0.0000
      29.75       0.000      0.0000      4.0000      100000      0.0042      0.0000      0.0000
      30.00       0.000      0.0000      4.0000      100000      0.0042      0.0000      0.0000
      30.25       0.000      0.0035      4.0000      100000      0.0042      0.0000      0.0000
      30.50       0.000      0.0035      4.0000      100000      0.0042      0.0000      0.0000
      30.75       0.000      0.0035      4.0000      100000      0.0042      0.0000      0.0000
      31.00       0.000      0.0035      4.0000      100000      0.0042      0.0000      0.0000
      31.25       0.000      0.0132      4.0000      100000      0.0042      0.0000      0.0000
      31.50       0.000      0.0132      4.0000      100000      0.0042      0.0000      0.0000
      31.75       0.000      0.0132      4.0000      100000      0.0042      0.0000      0.0000
      32.00       0.000      0.0132      4.0000      100000      0.0042      0.0000      0.0000
      32.25       0.000      0.0276      4.0000      100000      0.0042      0.0000      0.0000
      32.50       0.000      0.0276      4.0000      100000      0.0042      0.0000      0.0000
      32.75       0.000      0.0276      4.0000      100000      0.0042      0.0000      0.0000
      33.00       0.000      0.0276      4.0000      100000      0.0042      0.0000      0.0000
      33.25       0.000      0.0442      4.0000      100000      0.0042      0.0000      0.0000
      33.50       0.000      0.0442      4.0000      100000      0.0042      0.0000      0.0000
      33.75       0.000      0.0442      4.0000      100000      0.0042      0.0000      0.0000
      34.00       0.000      0.0442      4.0000      100000      0.0042      0.0000      0.0000
      34.25       0.000      0.0600      4.0000      100000      0.0042      0.0000      0.0000
      34.50       0.000      0.0600      4.0000      100000      0.0042      0.0000      0.0000
      34.75       0.000      0.0600      4.0000      100000      0.0042      0.0000      0.0000
      35.00       0.000      0.0600      4.0000      100000      0.0042      0.0000      0.0000
      35.25       0.000      0.0724      4.0000      100000      0.0042      0.0000      0.0000
      35.50       0.000      0.0724      4.0000      100000      0.0042      0.0000      0.0000
      35.75       0.000      0.0724      4.0000      100000      0.0042      0.0000      0.0000
      36.00       0.000      0.0724      4.0000      100000      0.0042      0.0000      0.0000
      36.25       0.000      0.0791      4.0000      100000      0.0042      0.0000      0.0000
      36.50       0.000      0.0791      4.0000      100000      0.0042      0.0000      0.0000
      36.75       0.000      0.0791      4.0000      100000      0.0042      0.0000      0.0000
      37.00       0.000      0.0791      4.0000      100000      0.0042      0.0000      0.0000
      37.25       0.000      0.0791      4.0000      100000      0.0042      0.0000      0.0000
      37.50       0.000      0.0791      4.0000      100000      0.0042      0.0000      0.0000
      37.75       0.000      0.0791      4.0000      100000      0.0042      0.0000      0.0000
      38.00       0.000      0.0791      4.0000      100000      0.0042      0.0000      0.0000
      38.25       0.000      0.0724      4.0000      100000      0.0042      0.0000      0.0000
      38.50       0.000      0.0724      4.0000      100000      0.0042      0.0000      0.0000
      38.75       0.000      0.0724      4.0000      100000      0.0042      0.0000      0.0000
      39.00       0.000      0.0724      4.0000      100000      0.0042      0.0000      0.0000
      39.25       0.000      0.0600      4.0000      100000      0.0042      0.0000      0.0000
      39.50       0.000      0.0600      4.0000      100000      0.0042      0.0000      0.0000
      39.75       0.000      0.0600      4.0000      100000      0.0042      0.0000      0.0000
      40.00       0.000      0.0600      4.0000      100000      0.0042      0.0000      0.0000
      40.25       0.000      0.0442      4.0000      100000      0.0042      0.0000      0.0000
      40.50       0.000      0.0442      4.0000      100000      0.0042      0.0000      0.0000
      40.75       0.000      0.0442      4.0000      100000      0.0042      0.0000      0.0000
      41.00       0.000      0.0442      4.0000      100000      0.0042      0.0000      0.0000
      41.25       0.000      0.0276      4.0000      100000      0.0042      0.0000      0.0000
      41.50       0.000      0.0276      4.0000      100000      0.0042      0.0000      0.0000
      41.75       0.000      0.0276      4.0000      100000      0.0042      0.0000      0.0000
      42.00       0.000      0.0276      4.0000      100000      0.0042      0.0000      0.0000
      42.25       0.000      0.0132      4.0000      100000      0.0042      0.0000      0.0000
      42.50       0.000      0.0132      4.0000      100000      0.0042      0.0000      0.0000
      42.75       0.000      0.0132      4.0000      100000      0.0042      0.0000      0.0000
      43.00       0.000      0.0132      4.0000      100000      0.0042      0.0000      0.0000
      43.25       0.000      0.0035      4.0000      100000      0.0042      0.0000      0.0000
      43.50       0.000      0.0035      4.0000      100000      0.0042      0.0000      0.0000
      43.75       0.000      0.0035      4.0000      100000      0.0042      0.0000      0.0000
      44.00       0.000      0.0035      4.0000      100000      0.0042      0.0000      0.0000
      44.25       0.000      0.0000      4.0000      100000      0.0042      0.0000      0.0000
      44.50       0.000      0.0000      4.0000      100000      0.0042      0.0000      0.0000
      44.75       0.000      0.0000      4.0000      100000      0.0042      0.0000      0.0000
      45.00       0.000      0.0000      4.0000      100000      0.0042      0.0000      0.0000
      45.25       0.000      0.0000      4.0000      100000      0.0042      0.0000      0.0000
      45.50       0.000      0.0000      4.0000      100000      0.0042      0.0000      0.0000
      45.75       0.000      0.0000      4.0000      100000      0.0042      0.0000      0.0000
      46.00       0.000      0.0000      4.0000      100000      0.0042      0.0000      0.0000
      46.25       0.000      0.0000      4.0000      100000      0.0042      0.0000      0.0000
      46.50       0.000      0.0000      4.0000      100000      0.0042      0.0000      0.0000
      46.75       0.000      0.0000      4.0000      100000      0.0042      0.0000      0.0000
      47.00       0.000      0.0000      4.0000      100000      0.0042      0.0000      0.0000
      47.25       0.000      0.0000      4.0000      100000      0.0042      0.0000      0.0000
      47.50       0.000      0.0000      4.0000      100000      0.0042      0.0000      0.0000
      47.75       0.000      0.0000      4.0000      100000      0.0042      0.0000      0.0000
      48.00       0.000      0.0000      4.0000      100000      0.0042      0.0000      0.0000
      48.25       0.000      0.0000      4.0000      100000      0.0042      0.0000      0.0000
      48.50       0.000      0.0000      4.0000      100000      0.0042      0.0000      0.0000
      48.75       0.000      0.0000      4.0000      100000      0.0042      0.0000      0.0000
      49.00       0.000      0.0000      4.0000      100000      0.0042      0.0000      0.0000
      49.25       0.000      0.0000      4.0000      100000      0.0042      0.0000      0.0000
      49.50       0.000      0.0000      4.0000      100000      0.0042      0.0000      0.0000
      49.75       0.000      0.0000      4.0000      100000      0.0042      0.0000      0.0000
      50.00       0.000      0.0000      4.0000      100000      0.0042      0.0000      0.0000
      50.25       0.000      0.0000      4.0000      100000      0.0042      0.0000      0.0000
      50.50       0.000      0.0000      4.0000      100000      0.0042      0.0000      0.0000
      50.75       0.000      0.0000      4.0000      100000      0.0042      0.0000      0.0000
      51.00       0.000      0.0000      4.0000      100000      0.0042      0.0000      0.0000
      51.25       0.000      0.0000      4.0000      100000      0.0042      0.0000      0.0000
      51.50       0.000      0.0000      4.0000      100000      0.0042      0.0000      0.0000
      51.75       0.000      0.0000      4.0000      100000      0.0042      0.0000      0.0000
      52.00       0.000      0.0000      4.0000      100000      0.0042      0.0000      0.0000
      52.25       0.000      0.0000      4.0000      100000      0.0042      0.0000      0.0000
      52.50       0.000      0.0000      4.0000      100000      0.0042      0.0000      0.0000
      52.75       0.000      0.0000      4.0000      100000      0.0042      0.0000      0.0000
      53.00       0.000      0.0000      4.0000      100000      0.0042      0.0000      0.0000
      53.25       0.000      0.0000      4.0000      100000      0.0042      0.0000      0.0000
      53.50       0.000      0.0000      4.0000      100000      0.0042      0.0000      0.0000
      53.75       0.000      0.0000      4.0000      100000      0.0042      0.0000      0.0000
      54.00       0.000      0.0000      4.0000      100000      0.0042      0.0000      0.0000
      54.25       0.000      0.0035      4.0000      100000      0.0042      0.0000      0.0000
      54.50       0.000      0.0035      4.0000      100000      0.0042      0.0000      0.0000
      54.75       0.000      0.0035      4.0000      100000      0.0042      0.0000      0.0000
      55.00       0.000      0.0035      4.0000      100000      0.0042      0.0000      0.0000
      55.25       0.000      0.0132      4.0000      100000      0.0042      0.0000      0.0000
      55.50       0.000      0.0132      4.0000      100000      0.0042      0.0000      0.0000
      55.75       0.000      0.0132      4.0000      100000      0.0042      0.0000      0.0000
      56.00       0.000      0.0132      4.0000      100000      0.0042      0.0000      0.0000
      56.25       0.000      0.0276      4.0000      100000      0.0042      0.0000      0.0000
      56.50       0.000      0.0276      4.0000      100000      0.0042      0.0000      0.0000
      56.75       0.000      0.0276      4.0000      100000      0.0042      0.0000      0.0000
      57.00       0.000      0.0276      4.0000      100000      0.0042      0.0000      0.0000
      57.25       0.000      0.0442      4.0000      100000      0.0042      0.0000      0.0000
      57.50       0.000      0.0442      4.0000      100000      0.0042      0.0000      0.0000
      57.75       0.000      0.0442      4.0000      100000      0.0042      0.0000      0.0000
      58.00       0.000      0.0442      4.0000      100000      0.0042      0.0000      0.0000
      58.25       0.000      0.0600      4.0000      100000      0.0042      0.0000      0.0000
      58.50       0.000      0.0600      4.0000      100000      0.0042      0.0000      0.0000
      58.75       0.000      0.0600      4.0000      100000      0.0042      0.0000      0.0000
      59.00       0.000      0.0600      4.0000      100000      0.0042      0.0000      0.0000
      59.25       0.000      0.0724      4.0000      100000      0.0042      0.0000      0.0000
      59.50       0.000      0.0724      4.0000      100000      0.0042      0.0000      0.0000
      59.75       0.000      0.0724      4.0000      100000      0.0042      0.0000      0.0000
      60.00       0.000      0.0724      4.0000      100000      0.0042      0.0000      0.0000
      60.25       0.000      0.0791      4.0000      100000      0.0042      0.0000      0.0000
      60.50       0.000      0.0791      4.0000      100000      0.0042      0.0000      0.0000
      60.75       0.000      0.0791      4.0000      100000      0.0042      0.0000      0.0000
      61.00       0.000      0.0791      4.0000      100000      0.0042      0.0000      0.0000
      61.25       0.000      0.0791      4.0000      100000      0.0042      0.0000      0.0000
      61.50       0.000      0.0791      4.0000      100000      0.0042      0.0000      0.0000
      61.75       0.000      0.0791      4.0000      100000      0.0042      0.0000      0.0000
      62.00       0.000      0.0791      4.0000      100000      0.0042      0.0000      0.0000
      62.25       0.000      0.0724      4.0000      100000      0.0042      0.0000      0.0000
      62.50       0.000      0.0724      4.0000      100000      0.0042      0.0000      0.0000
      62.75       0.000      0.0724      4.0000      100000      0.0042      0.0000      0.0000
      63.00       0.000      0.0724      4.0000      100000      0.0042      0.0000      0.0000
      63.25       0.000      0.0600      4.0000      100000      0.0042      0.0000      0.0000
      63.50       0.000      0.0600      4.0000      100000      0.0042      0.0000      0.0000
      63.75       0.000      0.0600      4.0000      100000      0.0042      0.0000      0.0000
      64.00       0.000      0.0600      4.0000      100000      0.0042      0.0000      0.0000
      64.25       0.000      0.0442      4.0000      100000      0.0042      0.0000      0.0000
      64.50       0.000      0.0442      4.0000      100000      0.0042      0.0000      0.0000
      64.75       0.000      0.0442      4.0000      100000      0.0042      0.0000      0.0000
      65.00       0.000      0.0442      4.0000      100000      0.0042      0.0000      0.0000
      65.25       0.000      0.0276      4.0000      100000      0.0042      0.0000      0.0000
      65.50       0.000      0.0276      4.0000      100000      0.0042      0.0000      0.0000
      65.75       0.000      0.0276      4.0000      100000      0.0042      0.0000      0.0000
      66.00       0.000      0.0276      4.0000      100000      0.0042      0.0000      0.0000
      66.25       0.000      0.0132      4.0000      100000      0.0042      0.0000      0.0000
      66.50       0.000      0.0132      4.0000      100000      0.0042      0.0000      0.0000
      66.75       0.000      0.0132      4.0000      100000      0.0042      0.0000      0.0000
      67.00       0.000      0.0132      4.0000      100000      0.0042      0.0000      0.0000
      67.25       0.000      0.0035      4.0000      100000      0.0042      0.0000      0.0000
      67.50       0.000      0.0035      4.0000      100000      0.0042      0.0000      0.0000
      67.75       0.000      0.0035      4.0000      100000      0.0042      0.0000      0.0000
      68.00       0.000      0.0035      4.0000      100000      0.0042      0.0000      0.0000
      68.25       0.000      0.0000      4.0000      100000      0.0042      0.0000      0.0000
      68.50       0.000      0.0000      4.0000      100000      0.0042      0.0000      0.0000
      68.75       0.000      0.0000      4.0000      100000      0.0042      0.0000      0.0000
      69.00       0.000      0.0000      4.0000      100000      0.0042      0.0000      0.0000
      69.25       0.000      0.0000      4.0000      100000      0.0042      0.0000      0.0000
      69.50       0.000      0.0000      4.0000      100000      0.0042      0.0000      0.0000
      69.75       0.000      0.0000      4.0000      100000      0.0042      0.0000      0.0000
      70.00       0.000      0.0000      4.0000      100000      0.0042      0.0000      0.0000
      70.25       0.000      0.0000      4.0000      100000      0.0042      0.0000      0.0000
      70.50       0.000      0.0000      4.0000      100000      0.0042      0.0000      0.0000
      70.75       0.000      0.0000      4.0000      100000      0.0042      0.0000      0.0000
      71.00       0.000      0.0000      4.0000      100000      0.0042      0.0000      0.0000
      71.25       0.000      0.0000      4.0000      100000      0.0042      0.0000      0.0000
      71.50       0.000      0.0000      4.0000      100000      0.0042      0.0000      0.0000
      71.75       0.000      0.0000      4.0000      100000      0.0042      0.0000      0.0000
      72.00       0.000      0.0000      4.0000      100000      0.0042      0.0000      0.0000
      72.25       0.000      0.0000      4.0000      100000      0.0042      0.0000      0.0000
      72.50       0.000      0.0000      4.0000      100000      0.0042      0.0000      0.0000
      72.75       0.000      0.0000      4.0000      100000      0.0042      0.0000      0.0000
      73.00       0.000      0.0000      4.0000      100000      0.0042      0.0000      0.0000
      73.25       0.000      0.0000      4.0000      100000      0.0042      0.0000      0.0000
      73.50       0.000      0.0000      4.0000      100000      0.0042      0.0000      0.0000
      73.75       0.000      0.0000      4.0000      100000      0.0042      0.0000      0.0000
      74.00       0.000      0.0000      4.0000      100000      0.0042      0.0000      0.0000
      74.25       0.000      0.0000      4.0000      100000      0.0042      0.0000      0.0000
      74.50       0.000      0.0000      4.0000      100000      0.0042      0.0000      0.0000
      74.75       0.000      0.0000      4.0000      100000      0.0042      0.0000      0.0000
      75.00       0.000      0.0000      4.0000      100000      0.0042      0.0000      0.0000
      75.25       0.000      0.0000      4.0000      100000      0.0042      0.0000      0.0000
      75.50       0.000      0.0000      4.0000      100000      0.0042      0.0000      0.0000
      75.75       0.000      0.0000      4.0000      100000      0.0042      0.0000      0.0000