Pcp_File_Version=4
*** BLOCK A: BASIC INFORMATION *****************************************
Heading
Diurnal Water Fluctuation due to ET and Groundwater Fluxes
LUnit  TUnit  MUnit  (indicated units are obligatory for all input data)
cm
hours
mmol
lWat   lChem lTemp  lSink lRoot lShort lWDep lScreen lVariabBC lEquil lInverse
 t     f     f      t     f     t      f     t       t         t         f
lSnow  lHP1   lMeteo  lVapor lActiveU lFluxes lIrrig  lDummy  lDummy  lDummy
 f       f       f       f       f       f       f       f       f       f
NMat    NLay  CosAlpha
  1       1       1
*** BLOCK B: WATER FLOW INFORMATION ************************************
MaxIt   TolTh   TolH       (maximum number of iterations and tolerances)
 100   1e-005    0.5
TopInf WLayer KodTop InitCond
 t     f      -1       f
BotInf qGWLF FreeD SeepF KodBot DrainF  hSeep
 f     f     f     f     -1      f      0
         rTop         rBot        rRoot
    0.000000     0.000000     0.000000
    hTab1   hTabN
         0       0
    Model   Hysteresis
      0          0
   thr     ths    Alfa      n         Ks       l
 0.0450  0.4300  0.1450   2.690  29.700000    0.50
*** BLOCK C: TIME INFORMATION ******************************************
        dt       dtMin       dtMax     DMul    DMul2  ItMin ItMax  MPL
      0.001      1e-005           5     1.3     0.7     3     7   480
      tInit        tMax
       8640        8760
  lPrintD  nPrintSteps tPrintInterval lEnter
     t           1           0.25       f
TPrint(1),TPrint(2),...,TPrint(MPL)
    8640.25     8640.50     8640.75     8641.00     8641.25     8641.50
    8641.75     8642.00     8642.25     8642.50     8642.75     8643.00
    8643.25     8643.50     8643.75     8644.00     8644.25     8644.50
    8644.75     8645.00     8645.25     8645.50     8645.75     8646.00
    8646.25     8646.50     8646.75     8647.00     8647.25     8647.50
    8647.75     8648.00     8648.25     8648.50     8648.75     8649.00
    8649.25     8649.50     8649.75     8650.00     8650.25     8650.50
    8650.75     8651.00     8651.25     8651.50     8651.75     8652.00
    8652.25     8652.50     8652.75     8653.00     8653.25     8653.50
    8653.75     8654.00     8654.25     8654.50     8654.75     8655.00
    8655.25     8655.50     8655.75     8656.00     8656.25     8656.50
    8656.75     8657.00     8657.25     8657.50     8657.75     8658.00
    8658.25     8658.50     8658.75     8659.00     8659.25     8659.50
    8659.75     8660.00     8660.25     8660.50     8660.75     8661.00
    8661.25     8661.50     8661.75     8662.00     8662.25     8662.50
    8662.75     8663.00     8663.25     8663.50     8663.75     8664.00
    8664.25     8664.50     8664.75     8665.00     8665.25     8665.50
    8665.75     8666.00     8666.25     8666.50     8666.75     8667.00
    8667.25     8667.50     8667.75     8668.00     8668.25     8668.50
    8668.75     8669.00     8669.25     8669.50     8669.75     8670.00
    8670.25     8670.50     8670.75     8671.00     8671.25     8671.50
    8671.75     8672.00     8672.25     8672.50     8672.75     8673.00
    8673.25     8673.50     8673.75     8674.00     8674.25     8674.50
    8674.75     8675.00     8675.25     8675.50     8675.75     8676.00
    8676.25     8676.50     8676.75     8677.00     8677.25     8677.50
    8677.75     8678.00     8678.25     8678.50     8678.75     8679.00
    8679.25     8679.50     8679.75     8680.00     8680.25     8680.50
    8680.75     8681.00     8681.25     8681.50     8681.75     8682.00
    8682.25     8682.50     8682.75     8683.00     8683.25     8683.50
    8683.75     8684.00     8684.25     8684.50     8684.75     8685.00
    8685.25     8685.50     8685.75     8686.00     8686.25     8686.50
    8686.75     8687.00     8687.25     8687.50     8687.75     8688.00
    8688.25     8688.50     8688.75     8689.00     8689.25     8689.50
    8689.75     8690.00     8690.25     8690.50     8690.75     8691.00
    8691.25     8691.50     8691.75     8692.00     8692.25     8692.50
    8692.75     8693.00     8693.25     8693.50     8693.75     8694.00
    8694.25     8694.50     8694.75     8695.00     8695.25     8695.50
    8695.75     8696.00     8696.25     8696.50     8696.75     8697.00
    8697.25     8697.50     8697.75     8698.00     8698.25     8698.50
    8698.75     8699.00     8699.25     8699.50     8699.75     8700.00
    8700.25     8700.50     8700.75     8701.00     8701.25     8701.50
    8701.75     8702.00     8702.25     8702.50     8702.75     8703.00
    8703.25     8703.50     8703.75     8704.00     8704.25     8704.50
    8704.75     8705.00     8705.25     8705.50     8705.75     8706.00
    8706.25     8706.50     8706.75     8707.00     8707.25     8707.50
    8707.75     8708.00     8708.25     8708.50     8708.75     8709.00
    8709.25     8709.50     8709.75     8710.00     8710.25     8710.50
    8710.75     8711.00     8711.25     8711.50     8711.75     8712.00
    8712.25     8712.50     8712.75     8713.00     8713.25     8713.50
    8713.75     8714.00     8714.25     8714.50     8714.75     8715.00
    8715.25     8715.50     8715.75     8716.00     8716.25     8716.50
    8716.75     8717.00     8717.25     8717.50     8717.75     8718.00
    8718.25     8718.50     8718.75     8719.00     8719.25     8719.50
    8719.75     8720.00     8720.25     8720.50     8720.75     8721.00
    8721.25     8721.50     8721.75     8722.00     8722.25     8722.50
    8722.75     8723.00     8723.25     8723.50     8723.75     8724.00
    8724.25     8724.50     8724.75     8725.00     8725.25     8725.50
    8725.75     8726.00     8726.25     8726.50     8726.75     8727.00
    8727.25     8727.50     8727.75     8728.00     8728.25     8728.50
    8728.75     8729.00     8729.25     8729.50     8729.75     8730.00
    8730.25     8730.50     8730.75     8731.00     8731.25     8731.50
    8731.75     8732.00     8732.25     8732.50     8732.75     8733.00
    8733.25     8733.50     8733.75     8734.00     8734.25     8734.50
    8734.75     8735.00     8735.25     8735.50     8735.75     8736.00
    8736.25     8736.50     8736.75     8737.00     8737.25     8737.50
    8737.75     8738.00     8738.25     8738.50     8738.75     8739.00
    8739.25     8739.50     8739.75     8740.00     8740.25     8740.50
    8740.75     8741.00     8741.25     8741.50     8741.75     8742.00
    8742.25     8742.50     8742.75     8743.00     8743.25     8743.50
    8743.75     8744.00     8744.25     8744.50     8744.75     8745.00
    8745.25     8745.50     8745.75     8746.00     8746.25     8746.50
    8746.75     8747.00     8747.25     8747.50     8747.75     8748.00
    8748.25     8748.50     8748.75     8749.00     8749.25     8749.50
    8749.75     8750.00     8750.25     8750.50     8750.75     8751.00
    8751.25     8751.50     8751.75     8752.00     8752.25     8752.50
    8752.75     8753.00     8753.25     8753.50     8753.75     8754.00
    8754.25     8754.50     8754.75     8755.00     8755.25     8755.50
    8755.75     8756.00     8756.25     8756.50     8756.75     8757.00
    8757.25     8757.50     8757.75     8758.00     8758.25     8758.50
    8758.75     8759.00     8759.25     8759.50     8759.75     8760.00
*** BLOCK G: ROOT WATER UPTAKE INFORMATION *****************************
     Model  (0 - Feddes, 1 - S shape)  cRootMax    OmegaC
        0                                   1
       P0       P2H       P2L       P3          r2H        r2L
        0      -300      -500    -16000      0.0208      0.0042
POptm(1),POptm(2),...,POptm(NMat)
       0 
*** END OF INPUT FILE 'SELECTOR.IN' ************************************
